*Heading
** Start header
**Relative densities: 0.005,0.01
**Lattice name: E11128
**Unit cell volume: 1.0
**Date: 2025-01-30
**Job name: E11128
** End header
**
**
*Material, name=Material-1
*Elastic
1., 0.3
**
** PARTS
**
*Part, name=LATTICE
**
*Node
1, 0.41659, 0.58341, 0.08326
2, 0.58341, 0.41659, 0.08326
3, 0.08326, 0.41659, 0.58341
4, 0.08326, 0.58341, 0.41659
5, 0.41659, 0.08326, 0.58341
6, 0.58341, 0.08326, 0.41659
7, 0.24925, 0.24925, 0.58441
8, 0.24925, 0.41559, 0.75075
9, 0.24925, 0.58441, 0.24925
10, 0.24925, 0.75075, 0.41559
11, 0.41559, 0.24925, 0.75075
12, 0.41559, 0.75075, 0.24925
13, 0.41659, 0.41659, 0.91674
14, 0.41659, 0.91674, 0.41659
15, 0.58341, 0.58341, 0.91674
16, 0.58341, 0.91674, 0.58341
17, 0.58441, 0.24925, 0.24925
18, 0.58441, 0.75075, 0.75075
19, 0.75075, 0.24925, 0.41559
20, 0.75075, 0.41559, 0.24925
** ... 148 like lines cut
**
** Elements with element sets
*Element, type=B31, elset=STRUT_0-24
1, 1, 49
2, 49, 50
3, 50, 25
*Element, type=B31, elset=STRUT_0-26
4, 1, 51
5, 51, 52
6, 52, 27
*Element, type=B31, elset=STRUT_0-11
7, 1, 53
8, 53, 54
9, 54, 12
*Element, type=B31, elset=STRUT_0-8
10, 1, 55
11, 55, 56
12, 56, 9
*Element, type=B31, elset=STRUT_1-27
13, 2, 57
14, 57, 58
15, 58, 28
*Element, type=B31, elset=STRUT_1-19
16, 2, 59
17, 59, 60
18, 60, 20
*Element, type=B31, elset=STRUT_1-16
19, 2, 61
20, 61, 62
21, 62, 17
*Element, type=B31, elset=STRUT_1-25
22, 2, 63
23, 63, 64
24, 64, 26
*Element, type=B31, elset=STRUT_2-28
25, 3, 65
26, 65, 66
27, 66, 29
*Element, type=B31, elset=STRUT_2-7
28, 3, 67
29, 67, 68
30, 68, 8
*Element, type=B31, elset=STRUT_2-30
31, 3, 69
32, 69, 70
33, 70, 31
*Element, type=B31, elset=STRUT_2-6
34, 3, 71
35, 71, 72
36, 72, 7
*Element, type=B31, elset=STRUT_3-31
37, 4, 73
38, 73, 74
39, 74, 32
*Element, type=B31, elset=STRUT_3-29
40, 4, 75
41, 75, 76
42, 76, 30
*Element, type=B31, elset=STRUT_3-8
43, 4, 77
44, 77, 78
45, 78, 9
*Element, type=B31, elset=STRUT_3-9
46, 4, 79
47, 79, 80
48, 80, 10
*Element, type=B31, elset=STRUT_4-32
49, 5, 81
50, 81, 82
51, 82, 33
*Element, type=B31, elset=STRUT_4-10
52, 5, 83
53, 83, 84
54, 84, 11
*Element, type=B31, elset=STRUT_4-34
55, 5, 85
56, 85, 86
57, 86, 35
*Element, type=B31, elset=STRUT_4-6
58, 5, 87
59, 87, 88
60, 88, 7
*Element, type=B31, elset=STRUT_5-16
61, 6, 89
62, 89, 90
63, 90, 17
*Element, type=B31, elset=STRUT_5-33
64, 6, 91
65, 91, 92
66, 92, 34
*Element, type=B31, elset=STRUT_5-18
67, 6, 93
68, 93, 94
69, 94, 19
*Element, type=B31, elset=STRUT_5-35
70, 6, 95
71, 95, 96
72, 96, 36
*Element, type=B31, elset=STRUT_6-10
73, 7, 97
74, 97, 98
75, 98, 11
*Element, type=B31, elset=STRUT_6-7
76, 7, 99
77, 99, 100
78, 100, 8
*Element, type=B31, elset=STRUT_7-10
79, 8, 101
80, 101, 102
81, 102, 11
*Element, type=B31, elset=STRUT_7-12
82, 8, 103
83, 103, 104
84, 104, 13
*Element, type=B31, elset=STRUT_8-9
85, 9, 105
86, 105, 106
87, 106, 10
*Element, type=B31, elset=STRUT_8-11
88, 9, 107
89, 107, 108
90, 108, 12
*Element, type=B31, elset=STRUT_9-13
91, 10, 109
92, 109, 110
93, 110, 14
*Element, type=B31, elset=STRUT_9-11
94, 10, 111
95, 111, 112
96, 112, 12
*Element, type=B31, elset=STRUT_10-12
97, 11, 113
98, 113, 114
99, 114, 13
*Element, type=B31, elset=STRUT_11-13
100, 12, 115
101, 115, 116
102, 116, 14
*Element, type=B31, elset=STRUT_12-37
103, 13, 117
104, 117, 118
105, 118, 38
*Element, type=B31, elset=STRUT_12-36
106, 13, 119
107, 119, 120
108, 120, 37
*Element, type=B31, elset=STRUT_13-39
109, 14, 121
110, 121, 122
111, 122, 40
*Element, type=B31, elset=STRUT_13-38
112, 14, 123
113, 123, 124
114, 124, 39
*Element, type=B31, elset=STRUT_14-20
115, 15, 125
116, 125, 126
117, 126, 21
*Element, type=B31, elset=STRUT_14-43
118, 15, 127
119, 127, 128
120, 128, 44
*Element, type=B31, elset=STRUT_14-42
121, 15, 129
122, 129, 130
123, 130, 43
*Element, type=B31, elset=STRUT_14-17
124, 15, 131
125, 131, 132
126, 132, 18
*Element, type=B31, elset=STRUT_15-21
127, 16, 133
128, 133, 134
129, 134, 22
*Element, type=B31, elset=STRUT_15-45
130, 16, 135
131, 135, 136
132, 136, 46
*Element, type=B31, elset=STRUT_15-44
133, 16, 137
134, 137, 138
135, 138, 45
*Element, type=B31, elset=STRUT_15-17
136, 16, 139
137, 139, 140
138, 140, 18
*Element, type=B31, elset=STRUT_16-19
139, 17, 141
140, 141, 142
141, 142, 20
*Element, type=B31, elset=STRUT_16-18
142, 17, 143
143, 143, 144
144, 144, 19
*Element, type=B31, elset=STRUT_17-20
145, 18, 145
146, 145, 146
147, 146, 21
*Element, type=B31, elset=STRUT_17-21
148, 18, 147
149, 147, 148
150, 148, 22
*Element, type=B31, elset=STRUT_18-19
151, 19, 149
152, 149, 150
153, 150, 20
*Element, type=B31, elset=STRUT_18-22
154, 19, 151
155, 151, 152
156, 152, 23
*Element, type=B31, elset=STRUT_19-22
157, 20, 153
158, 153, 154
159, 154, 23
*Element, type=B31, elset=STRUT_20-23
160, 21, 155
161, 155, 156
162, 156, 24
*Element, type=B31, elset=STRUT_20-21
163, 21, 157
164, 157, 158
165, 158, 22
*Element, type=B31, elset=STRUT_21-23
166, 22, 159
167, 159, 160
168, 160, 24
*Element, type=B31, elset=STRUT_22-41
169, 23, 161
170, 161, 162
171, 162, 42
*Element, type=B31, elset=STRUT_22-40
172, 23, 163
173, 163, 164
174, 164, 41
*Element, type=B31, elset=STRUT_23-46
175, 24, 165
176, 165, 166
177, 166, 47
*Element, type=B31, elset=STRUT_23-47
178, 24, 167
179, 167, 168
180, 168, 48
**
* End Part
**
*Part, name=INST0-REF1
*Node
  1, -0.1, -0.1, -0.1
*End Part
*Part, name=INST0-REF2
*Node
  1, -0.2, -0.2, -0.2
*End Part
**
*Part, name=INST1-REF1
*Node
  1, -0.1, -0.1, -0.1
*End Part
*Part, name=INST1-REF2
*Node
  1, -0.2, -0.2, -0.2
*End Part
**
**
** ASSEMBLY
**
*Assembly, name=Assembly
*Instance, name=INST0-LAT, part=LATTICE
0 0 0
*Beam Section, elset=STRUT_0-24, material=Material-1, section=CIRC
0.0118634802371591
0.28843, 0.67645, -0.67766, 0.9575, -0.20377, 0.20413
*Beam Section, elset=STRUT_0-26, material=Material-1, section=CIRC
0.0118634802371591
0.52601, 0.66755, 0.52696, 0.4716, -0.74457, 0.47245
*Beam Section, elset=STRUT_0-11, material=Material-1, section=CIRC
0.0118634802371591
0.97531, -0.15255, 0.15966, 0.22078, 0.68752, -0.69178
*Beam Section, elset=STRUT_0-8, material=Material-1, section=CIRC
0.0118634802371591
0.22747, 0.94776, 0.22361, -0.6665, 0.31895, -0.67384
*Beam Section, elset=STRUT_1-27, material=Material-1, section=CIRC
0.0118634802371591
0.38512, 0.65198, 0.65315, 0.92287, -0.27207, -0.27257
*Beam Section, elset=STRUT_1-19, material=Material-1, section=CIRC
0.0118634802371591
0.31144, 0.89877, -0.30856, -0.63163, 0.43839, 0.63941
*Beam Section, elset=STRUT_1-16, material=Material-1, section=CIRC
0.0118634802371591
0.10415, 0.70072, 0.70579, -0.99455, 0.070355, 0.076918
*Beam Section, elset=STRUT_1-25, material=Material-1, section=CIRC
0.0118634802371591
0.2885, 0.91282, -0.28902, 0.64488, -0.40837, -0.64604
*Beam Section, elset=STRUT_2-28, material=Material-1, section=CIRC
0.0118634802371591
-0.31263, 0.89715, 0.31207, 0.63495, 0.44173, -0.63381
*Beam Section, elset=STRUT_2-7, material=Material-1, section=CIRC
0.0118634802371591
-0.26621, 0.92544, 0.2696, -0.65817, -0.37886, 0.6506
*Beam Section, elset=STRUT_2-30, material=Material-1, section=CIRC
0.0118634802371591
0.63096, 0.62983, 0.453, 0.32061, 0.32003, -0.89151
*Beam Section, elset=STRUT_2-6, material=Material-1, section=CIRC
0.0118634802371591
0.26756, 0.27093, 0.92467, -0.65763, -0.65004, 0.38075
*Beam Section, elset=STRUT_3-31, material=Material-1, section=CIRC
0.0118634802371591
0.48555, 0.72755, 0.48468, -0.51492, 0.68606, -0.51399
*Beam Section, elset=STRUT_3-29, material=Material-1, section=CIRC
0.0118634802371591
-0.10777, 0.10757, 0.98834, -0.69949, 0.69823, -0.15227
*Beam Section, elset=STRUT_3-8, material=Material-1, section=CIRC
0.0118634802371591
0.60074, 0.52939, 0.59905, 0.37838, -0.84837, 0.37026
*Beam Section, elset=STRUT_3-9, material=Material-1, section=CIRC
0.0118634802371591
-0.29052, 0.29362, 0.9107, 0.64781, -0.64011, 0.41304
*Beam Section, elset=STRUT_4-32, material=Material-1, section=CIRC
0.0118634802371591
0.78277, -0.44043, 0.43964, -0.62231, -0.554, 0.55301
*Beam Section, elset=STRUT_4-10, material=Material-1, section=CIRC
0.0118634802371591
0.72577, 0.49057, -0.48228, -0.68792, 0.51322, -0.51319
*Beam Section, elset=STRUT_4-34, material=Material-1, section=CIRC
0.0118634802371591
0.65233, 0.6535, 0.38393, -0.27123, -0.27172, 0.92336
*Beam Section, elset=STRUT_4-6, material=Material-1, section=CIRC
0.0118634802371591
** ... 121 like lines cut
**
*End Instance
*Instance, name=INST0-REF1-A, part=INST0-REF1
0 0 0
*End Instance
*Instance, name=INST0-REF2-A, part=INST0-REF2
0 0 0
*End Instance
*Nset, nset=INST0-REF1, instance=INST0-REF1-A
  1,
*Nset, nset=INST0-REF2, instance=INST0-REF2-A
  1,
*Nset, nset=INST0-REF-PTS
  INST0-REF1, INST0-REF2
**
** EQUATIONS
**
** INST0: Constraint 0, nodes {25,37}
*Nset, nset=LAT0-PBC_NODE_0, instance=INST0-LAT
  25,
*Nset, nset=LAT0-MIRROR_NODE_0, instance=INST0-LAT
  37,
*Equation
2
LAT0-MIRROR_NODE_0, 4, 1.
LAT0-PBC_NODE_0, 4, -1.
*Equation
2
LAT0-MIRROR_NODE_0, 5, 1.
LAT0-PBC_NODE_0, 5, -1.
*Equation
2
LAT0-MIRROR_NODE_0, 6, 1.
LAT0-PBC_NODE_0, 6, -1.
*Equation
3
LAT0-MIRROR_NODE_0, 1, 1.
LAT0-PBC_NODE_0, 1, -1.
INST0-REF2, 2, -1.0
*Equation
3
LAT0-MIRROR_NODE_0, 2, 1.
LAT0-PBC_NODE_0, 2, -1.
INST0-REF2, 3, -1.0
*Equation
3
LAT0-MIRROR_NODE_0, 3, 1.
LAT0-PBC_NODE_0, 3, -1.
INST0-REF1, 3, -1.0
** INST0: Constraint 1, nodes {26,38}
*Nset, nset=LAT0-PBC_NODE_1, instance=INST0-LAT
  26,
*Nset, nset=LAT0-MIRROR_NODE_1, instance=INST0-LAT
  38,
*Equation
2
LAT0-MIRROR_NODE_1, 4, 1.
LAT0-PBC_NODE_1, 4, -1.
*Equation
2
LAT0-MIRROR_NODE_1, 5, 1.
LAT0-PBC_NODE_1, 5, -1.
*Equation
2
LAT0-MIRROR_NODE_1, 6, 1.
LAT0-PBC_NODE_1, 6, -1.
*Equation
3
LAT0-MIRROR_NODE_1, 1, 1.
LAT0-PBC_NODE_1, 1, -1.
INST0-REF2, 2, -1.0
*Equation
3
LAT0-MIRROR_NODE_1, 2, 1.
LAT0-PBC_NODE_1, 2, -1.
INST0-REF2, 3, -1.0
*Equation
3
LAT0-MIRROR_NODE_1, 3, 1.
LAT0-PBC_NODE_1, 3, -1.
INST0-REF1, 3, -1.0
** INST0: Constraint 2, nodes {27,43}
*Nset, nset=LAT0-PBC_NODE_2, instance=INST0-LAT
  27,
*Nset, nset=LAT0-MIRROR_NODE_2, instance=INST0-LAT
  43,
*Equation
2
LAT0-MIRROR_NODE_2, 4, 1.
LAT0-PBC_NODE_2, 4, -1.
*Equation
2
LAT0-MIRROR_NODE_2, 5, 1.
LAT0-PBC_NODE_2, 5, -1.
*Equation
2
LAT0-MIRROR_NODE_2, 6, 1.
LAT0-PBC_NODE_2, 6, -1.
*Equation
3
LAT0-MIRROR_NODE_2, 1, 1.
LAT0-PBC_NODE_2, 1, -1.
INST0-REF2, 2, -1.0
*Equation
3
LAT0-MIRROR_NODE_2, 2, 1.
LAT0-PBC_NODE_2, 2, -1.
INST0-REF2, 3, -1.0
*Equation
3
LAT0-MIRROR_NODE_2, 3, 1.
LAT0-PBC_NODE_2, 3, -1.
INST0-REF1, 3, -1.0
** INST0: Constraint 3, nodes {44,28}
*Nset, nset=LAT0-PBC_NODE_3, instance=INST0-LAT
  44,
*Nset, nset=LAT0-MIRROR_NODE_3, instance=INST0-LAT
  28,
*Equation
2
LAT0-MIRROR_NODE_3, 4, 1.
LAT0-PBC_NODE_3, 4, -1.
*Equation
2
LAT0-MIRROR_NODE_3, 5, 1.
LAT0-PBC_NODE_3, 5, -1.
*Equation
2
LAT0-MIRROR_NODE_3, 6, 1.
LAT0-PBC_NODE_3, 6, -1.
*Equation
3
LAT0-MIRROR_NODE_3, 1, 1.
LAT0-PBC_NODE_3, 1, -1.
INST0-REF2, 2, 1.0
*Equation
3
LAT0-MIRROR_NODE_3, 2, 1.
LAT0-PBC_NODE_3, 2, -1.
INST0-REF2, 3, 1.0
*Equation
3
LAT0-MIRROR_NODE_3, 3, 1.
LAT0-PBC_NODE_3, 3, -1.
INST0-REF1, 3, 1.0
** INST0: Constraint 4, nodes {41,29}
*Nset, nset=LAT0-PBC_NODE_4, instance=INST0-LAT
  41,
*Nset, nset=LAT0-MIRROR_NODE_4, instance=INST0-LAT
  29,
*Equation
2
LAT0-MIRROR_NODE_4, 4, 1.
LAT0-PBC_NODE_4, 4, -1.
*Equation
2
LAT0-MIRROR_NODE_4, 5, 1.
LAT0-PBC_NODE_4, 5, -1.
*Equation
2
LAT0-MIRROR_NODE_4, 6, 1.
LAT0-PBC_NODE_4, 6, -1.
*Equation
3
LAT0-MIRROR_NODE_4, 1, 1.
LAT0-PBC_NODE_4, 1, -1.
INST0-REF1, 1, 0.9999999999999999
*Equation
3
LAT0-MIRROR_NODE_4, 2, 1.
LAT0-PBC_NODE_4, 2, -1.
INST0-REF2, 1, 0.9999999999999999
*Equation
3
LAT0-MIRROR_NODE_4, 3, 1.
LAT0-PBC_NODE_4, 3, -1.
INST0-REF2, 2, 0.9999999999999999
** INST0: Constraint 5, nodes {42,30}
*Nset, nset=LAT0-PBC_NODE_5, instance=INST0-LAT
  42,
*Nset, nset=LAT0-MIRROR_NODE_5, instance=INST0-LAT
  30,
*Equation
2
LAT0-MIRROR_NODE_5, 4, 1.
LAT0-PBC_NODE_5, 4, -1.
*Equation
2
LAT0-MIRROR_NODE_5, 5, 1.
LAT0-PBC_NODE_5, 5, -1.
*Equation
2
LAT0-MIRROR_NODE_5, 6, 1.
LAT0-PBC_NODE_5, 6, -1.
*Equation
3
LAT0-MIRROR_NODE_5, 1, 1.
LAT0-PBC_NODE_5, 1, -1.
INST0-REF1, 1, 0.9999999999999999
*Equation
3
LAT0-MIRROR_NODE_5, 2, 1.
LAT0-PBC_NODE_5, 2, -1.
INST0-REF2, 1, 0.9999999999999999
*Equation
3
LAT0-MIRROR_NODE_5, 3, 1.
LAT0-PBC_NODE_5, 3, -1.
INST0-REF2, 2, 0.9999999999999999
** INST0: Constraint 6, nodes {47,31}
*Nset, nset=LAT0-PBC_NODE_6, instance=INST0-LAT
  47,
*Nset, nset=LAT0-MIRROR_NODE_6, instance=INST0-LAT
  31,
*Equation
2
LAT0-MIRROR_NODE_6, 4, 1.
LAT0-PBC_NODE_6, 4, -1.
*Equation
2
LAT0-MIRROR_NODE_6, 5, 1.
LAT0-PBC_NODE_6, 5, -1.
*Equation
2
LAT0-MIRROR_NODE_6, 6, 1.
LAT0-PBC_NODE_6, 6, -1.
*Equation
3
LAT0-MIRROR_NODE_6, 1, 1.
LAT0-PBC_NODE_6, 1, -1.
INST0-REF1, 1, 0.9999999999999999
*Equation
3
LAT0-MIRROR_NODE_6, 2, 1.
LAT0-PBC_NODE_6, 2, -1.
INST0-REF2, 1, 0.9999999999999999
*Equation
3
LAT0-MIRROR_NODE_6, 3, 1.
LAT0-PBC_NODE_6, 3, -1.
INST0-REF2, 2, 0.9999999999999999
** INST0: Constraint 7, nodes {48,32}
*Nset, nset=LAT0-PBC_NODE_7, instance=INST0-LAT
  48,
*Nset, nset=LAT0-MIRROR_NODE_7, instance=INST0-LAT
  32,
*Equation
2
LAT0-MIRROR_NODE_7, 4, 1.
LAT0-PBC_NODE_7, 4, -1.
*Equation
2
LAT0-MIRROR_NODE_7, 5, 1.
LAT0-PBC_NODE_7, 5, -1.
*Equation
2
LAT0-MIRROR_NODE_7, 6, 1.
LAT0-PBC_NODE_7, 6, -1.
*Equation
3
LAT0-MIRROR_NODE_7, 1, 1.
LAT0-PBC_NODE_7, 1, -1.
INST0-REF1, 1, 0.9999999999999999
*Equation
3
LAT0-MIRROR_NODE_7, 2, 1.
LAT0-PBC_NODE_7, 2, -1.
INST0-REF2, 1, 0.9999999999999999
*Equation
3
LAT0-MIRROR_NODE_7, 3, 1.
LAT0-PBC_NODE_7, 3, -1.
INST0-REF2, 2, 0.9999999999999999
** INST0: Constraint 8, nodes {33,39}
*Nset, nset=LAT0-PBC_NODE_8, instance=INST0-LAT
  33,
*Nset, nset=LAT0-MIRROR_NODE_8, instance=INST0-LAT
  39,
*Equation
2
LAT0-MIRROR_NODE_8, 4, 1.
LAT0-PBC_NODE_8, 4, -1.
*Equation
2
LAT0-MIRROR_NODE_8, 5, 1.
LAT0-PBC_NODE_8, 5, -1.
*Equation
2
LAT0-MIRROR_NODE_8, 6, 1.
LAT0-PBC_NODE_8, 6, -1.
*Equation
3
LAT0-MIRROR_NODE_8, 1, 1.
LAT0-PBC_NODE_8, 1, -1.
INST0-REF2, 1, -1.0
*Equation
3
LAT0-MIRROR_NODE_8, 2, 1.
LAT0-PBC_NODE_8, 2, -1.
INST0-REF1, 2, -1.0
*Equation
3
LAT0-MIRROR_NODE_8, 3, 1.
LAT0-PBC_NODE_8, 3, -1.
INST0-REF2, 3, -1.0
** INST0: Constraint 9, nodes {34,40}
*Nset, nset=LAT0-PBC_NODE_9, instance=INST0-LAT
  34,
*Nset, nset=LAT0-MIRROR_NODE_9, instance=INST0-LAT
  40,
*Equation
2
LAT0-MIRROR_NODE_9, 4, 1.
LAT0-PBC_NODE_9, 4, -1.
*Equation
2
LAT0-MIRROR_NODE_9, 5, 1.
LAT0-PBC_NODE_9, 5, -1.
*Equation
2
LAT0-MIRROR_NODE_9, 6, 1.
LAT0-PBC_NODE_9, 6, -1.
*Equation
3
LAT0-MIRROR_NODE_9, 1, 1.
LAT0-PBC_NODE_9, 1, -1.
INST0-REF2, 1, -1.0
*Equation
3
LAT0-MIRROR_NODE_9, 2, 1.
LAT0-PBC_NODE_9, 2, -1.
INST0-REF1, 2, -1.0
*Equation
3
LAT0-MIRROR_NODE_9, 3, 1.
LAT0-PBC_NODE_9, 3, -1.
INST0-REF2, 3, -1.0
** INST0: Constraint 10, nodes {35,45}
*Nset, nset=LAT0-PBC_NODE_10, instance=INST0-LAT
  35,
*Nset, nset=LAT0-MIRROR_NODE_10, instance=INST0-LAT
  45,
*Equation
2
LAT0-MIRROR_NODE_10, 4, 1.
LAT0-PBC_NODE_10, 4, -1.
*Equation
2
LAT0-MIRROR_NODE_10, 5, 1.
LAT0-PBC_NODE_10, 5, -1.
*Equation
2
LAT0-MIRROR_NODE_10, 6, 1.
LAT0-PBC_NODE_10, 6, -1.
*Equation
3
LAT0-MIRROR_NODE_10, 1, 1.
LAT0-PBC_NODE_10, 1, -1.
INST0-REF2, 1, -1.0
*Equation
3
LAT0-MIRROR_NODE_10, 2, 1.
LAT0-PBC_NODE_10, 2, -1.
INST0-REF1, 2, -1.0
*Equation
3
LAT0-MIRROR_NODE_10, 3, 1.
LAT0-PBC_NODE_10, 3, -1.
INST0-REF2, 3, -1.0
** INST0: Constraint 11, nodes {36,46}
*Nset, nset=LAT0-PBC_NODE_11, instance=INST0-LAT
  36,
*Nset, nset=LAT0-MIRROR_NODE_11, instance=INST0-LAT
  46,
*Equation
2
LAT0-MIRROR_NODE_11, 4, 1.
LAT0-PBC_NODE_11, 4, -1.
*Equation
2
LAT0-MIRROR_NODE_11, 5, 1.
LAT0-PBC_NODE_11, 5, -1.
*Equation
2
LAT0-MIRROR_NODE_11, 6, 1.
LAT0-PBC_NODE_11, 6, -1.
*Equation
3
LAT0-MIRROR_NODE_11, 1, 1.
LAT0-PBC_NODE_11, 1, -1.
INST0-REF2, 1, -1.0
*Equation
3
LAT0-MIRROR_NODE_11, 2, 1.
LAT0-PBC_NODE_11, 2, -1.
INST0-REF1, 2, -1.0
*Equation
3
LAT0-MIRROR_NODE_11, 3, 1.
LAT0-PBC_NODE_11, 3, -1.
INST0-REF2, 3, -1.0
**
*Instance, name=INST1-LAT, part=LATTICE
1.5 0 0
*Beam Section, elset=STRUT_0-24, material=Material-1, section=CIRC
0.016777494648335584
0.28843, 0.67645, -0.67766, 0.9575, -0.20377, 0.20413
*Beam Section, elset=STRUT_0-26, material=Material-1, section=CIRC
0.016777494648335584
0.52601, 0.66755, 0.52696, 0.4716, -0.74457, 0.47245
*Beam Section, elset=STRUT_0-11, material=Material-1, section=CIRC
0.016777494648335584
0.97531, -0.15255, 0.15966, 0.22078, 0.68752, -0.69178
*Beam Section, elset=STRUT_0-8, material=Material-1, section=CIRC
0.016777494648335584
0.22747, 0.94776, 0.22361, -0.6665, 0.31895, -0.67384
*Beam Section, elset=STRUT_1-27, material=Material-1, section=CIRC
0.016777494648335584
0.38512, 0.65198, 0.65315, 0.92287, -0.27207, -0.27257
*Beam Section, elset=STRUT_1-19, material=Material-1, section=CIRC
0.016777494648335584
0.31144, 0.89877, -0.30856, -0.63163, 0.43839, 0.63941
*Beam Section, elset=STRUT_1-16, material=Material-1, section=CIRC
0.016777494648335584
0.10415, 0.70072, 0.70579, -0.99455, 0.070355, 0.076918
*Beam Section, elset=STRUT_1-25, material=Material-1, section=CIRC
0.016777494648335584
0.2885, 0.91282, -0.28902, 0.64488, -0.40837, -0.64604
*Beam Section, elset=STRUT_2-28, material=Material-1, section=CIRC
0.016777494648335584
-0.31263, 0.89715, 0.31207, 0.63495, 0.44173, -0.63381
*Beam Section, elset=STRUT_2-7, material=Material-1, section=CIRC
0.016777494648335584
-0.26621, 0.92544, 0.2696, -0.65817, -0.37886, 0.6506
*Beam Section, elset=STRUT_2-30, material=Material-1, section=CIRC
0.016777494648335584
0.63096, 0.62983, 0.453, 0.32061, 0.32003, -0.89151
*Beam Section, elset=STRUT_2-6, material=Material-1, section=CIRC
0.016777494648335584
0.26756, 0.27093, 0.92467, -0.65763, -0.65004, 0.38075
*Beam Section, elset=STRUT_3-31, material=Material-1, section=CIRC
0.016777494648335584
0.48555, 0.72755, 0.48468, -0.51492, 0.68606, -0.51399
*Beam Section, elset=STRUT_3-29, material=Material-1, section=CIRC
0.016777494648335584
-0.10777, 0.10757, 0.98834, -0.69949, 0.69823, -0.15227
*Beam Section, elset=STRUT_3-8, material=Material-1, section=CIRC
0.016777494648335584
0.60074, 0.52939, 0.59905, 0.37838, -0.84837, 0.37026
*Beam Section, elset=STRUT_3-9, material=Material-1, section=CIRC
0.016777494648335584
-0.29052, 0.29362, 0.9107, 0.64781, -0.64011, 0.41304
*Beam Section, elset=STRUT_4-32, material=Material-1, section=CIRC
0.016777494648335584
0.78277, -0.44043, 0.43964, -0.62231, -0.554, 0.55301
*Beam Section, elset=STRUT_4-10, material=Material-1, section=CIRC
0.016777494648335584
0.72577, 0.49057, -0.48228, -0.68792, 0.51322, -0.51319
*Beam Section, elset=STRUT_4-34, material=Material-1, section=CIRC
0.016777494648335584
0.65233, 0.6535, 0.38393, -0.27123, -0.27172, 0.92336
*Beam Section, elset=STRUT_4-6, material=Material-1, section=CIRC
0.016777494648335584
** ... 121 like lines cut
**
*End Instance
*Instance, name=INST1-REF1-A, part=INST1-REF1
1.5 0 0
*End Instance
*Instance, name=INST1-REF2-A, part=INST1-REF2
1.5 0 0
*End Instance
*Nset, nset=INST1-REF1, instance=INST1-REF1-A
  1,
*Nset, nset=INST1-REF2, instance=INST1-REF2-A
  1,
*Nset, nset=INST1-REF-PTS
  INST1-REF1, INST1-REF2
**
** EQUATIONS
**
** INST1: Constraint 0, nodes {25,37}
*Nset, nset=LAT1-PBC_NODE_0, instance=INST1-LAT
  25,
*Nset, nset=LAT1-MIRROR_NODE_0, instance=INST1-LAT
  37,
*Equation
2
LAT1-MIRROR_NODE_0, 4, 1.
LAT1-PBC_NODE_0, 4, -1.
*Equation
2
LAT1-MIRROR_NODE_0, 5, 1.
LAT1-PBC_NODE_0, 5, -1.
*Equation
2
LAT1-MIRROR_NODE_0, 6, 1.
LAT1-PBC_NODE_0, 6, -1.
*Equation
3
LAT1-MIRROR_NODE_0, 1, 1.
LAT1-PBC_NODE_0, 1, -1.
INST1-REF2, 2, -1.0
*Equation
3
LAT1-MIRROR_NODE_0, 2, 1.
LAT1-PBC_NODE_0, 2, -1.
INST1-REF2, 3, -1.0
*Equation
3
LAT1-MIRROR_NODE_0, 3, 1.
LAT1-PBC_NODE_0, 3, -1.
INST1-REF1, 3, -1.0
** INST1: Constraint 1, nodes {26,38}
*Nset, nset=LAT1-PBC_NODE_1, instance=INST1-LAT
  26,
*Nset, nset=LAT1-MIRROR_NODE_1, instance=INST1-LAT
  38,
*Equation
2
LAT1-MIRROR_NODE_1, 4, 1.
LAT1-PBC_NODE_1, 4, -1.
*Equation
2
LAT1-MIRROR_NODE_1, 5, 1.
LAT1-PBC_NODE_1, 5, -1.
*Equation
2
LAT1-MIRROR_NODE_1, 6, 1.
LAT1-PBC_NODE_1, 6, -1.
*Equation
3
LAT1-MIRROR_NODE_1, 1, 1.
LAT1-PBC_NODE_1, 1, -1.
INST1-REF2, 2, -1.0
*Equation
3
LAT1-MIRROR_NODE_1, 2, 1.
LAT1-PBC_NODE_1, 2, -1.
INST1-REF2, 3, -1.0
*Equation
3
LAT1-MIRROR_NODE_1, 3, 1.
LAT1-PBC_NODE_1, 3, -1.
INST1-REF1, 3, -1.0
** INST1: Constraint 2, nodes {27,43}
*Nset, nset=LAT1-PBC_NODE_2, instance=INST1-LAT
  27,
*Nset, nset=LAT1-MIRROR_NODE_2, instance=INST1-LAT
  43,
*Equation
2
LAT1-MIRROR_NODE_2, 4, 1.
LAT1-PBC_NODE_2, 4, -1.
*Equation
2
LAT1-MIRROR_NODE_2, 5, 1.
LAT1-PBC_NODE_2, 5, -1.
*Equation
2
LAT1-MIRROR_NODE_2, 6, 1.
LAT1-PBC_NODE_2, 6, -1.
*Equation
3
LAT1-MIRROR_NODE_2, 1, 1.
LAT1-PBC_NODE_2, 1, -1.
INST1-REF2, 2, -1.0
*Equation
3
LAT1-MIRROR_NODE_2, 2, 1.
LAT1-PBC_NODE_2, 2, -1.
INST1-REF2, 3, -1.0
*Equation
3
LAT1-MIRROR_NODE_2, 3, 1.
LAT1-PBC_NODE_2, 3, -1.
INST1-REF1, 3, -1.0
** INST1: Constraint 3, nodes {44,28}
*Nset, nset=LAT1-PBC_NODE_3, instance=INST1-LAT
  44,
*Nset, nset=LAT1-MIRROR_NODE_3, instance=INST1-LAT
  28,
*Equation
2
LAT1-MIRROR_NODE_3, 4, 1.
LAT1-PBC_NODE_3, 4, -1.
*Equation
2
LAT1-MIRROR_NODE_3, 5, 1.
LAT1-PBC_NODE_3, 5, -1.
*Equation
2
LAT1-MIRROR_NODE_3, 6, 1.
LAT1-PBC_NODE_3, 6, -1.
*Equation
3
LAT1-MIRROR_NODE_3, 1, 1.
LAT1-PBC_NODE_3, 1, -1.
INST1-REF2, 2, 1.0
*Equation
3
LAT1-MIRROR_NODE_3, 2, 1.
LAT1-PBC_NODE_3, 2, -1.
INST1-REF2, 3, 1.0
*Equation
3
LAT1-MIRROR_NODE_3, 3, 1.
LAT1-PBC_NODE_3, 3, -1.
INST1-REF1, 3, 1.0
** INST1: Constraint 4, nodes {41,29}
*Nset, nset=LAT1-PBC_NODE_4, instance=INST1-LAT
  41,
*Nset, nset=LAT1-MIRROR_NODE_4, instance=INST1-LAT
  29,
*Equation
2
LAT1-MIRROR_NODE_4, 4, 1.
LAT1-PBC_NODE_4, 4, -1.
*Equation
2
LAT1-MIRROR_NODE_4, 5, 1.
LAT1-PBC_NODE_4, 5, -1.
*Equation
2
LAT1-MIRROR_NODE_4, 6, 1.
LAT1-PBC_NODE_4, 6, -1.
*Equation
3
LAT1-MIRROR_NODE_4, 1, 1.
LAT1-PBC_NODE_4, 1, -1.
INST1-REF1, 1, 0.9999999999999999
*Equation
3
LAT1-MIRROR_NODE_4, 2, 1.
LAT1-PBC_NODE_4, 2, -1.
INST1-REF2, 1, 0.9999999999999999
*Equation
3
LAT1-MIRROR_NODE_4, 3, 1.
LAT1-PBC_NODE_4, 3, -1.
INST1-REF2, 2, 0.9999999999999999
** INST1: Constraint 5, nodes {42,30}
*Nset, nset=LAT1-PBC_NODE_5, instance=INST1-LAT
  42,
*Nset, nset=LAT1-MIRROR_NODE_5, instance=INST1-LAT
  30,
*Equation
2
LAT1-MIRROR_NODE_5, 4, 1.
LAT1-PBC_NODE_5, 4, -1.
*Equation
2
LAT1-MIRROR_NODE_5, 5, 1.
LAT1-PBC_NODE_5, 5, -1.
*Equation
2
LAT1-MIRROR_NODE_5, 6, 1.
LAT1-PBC_NODE_5, 6, -1.
*Equation
3
LAT1-MIRROR_NODE_5, 1, 1.
LAT1-PBC_NODE_5, 1, -1.
INST1-REF1, 1, 0.9999999999999999
*Equation
3
LAT1-MIRROR_NODE_5, 2, 1.
LAT1-PBC_NODE_5, 2, -1.
INST1-REF2, 1, 0.9999999999999999
*Equation
3
LAT1-MIRROR_NODE_5, 3, 1.
LAT1-PBC_NODE_5, 3, -1.
INST1-REF2, 2, 0.9999999999999999
** INST1: Constraint 6, nodes {47,31}
*Nset, nset=LAT1-PBC_NODE_6, instance=INST1-LAT
  47,
*Nset, nset=LAT1-MIRROR_NODE_6, instance=INST1-LAT
  31,
*Equation
2
LAT1-MIRROR_NODE_6, 4, 1.
LAT1-PBC_NODE_6, 4, -1.
*Equation
2
LAT1-MIRROR_NODE_6, 5, 1.
LAT1-PBC_NODE_6, 5, -1.
*Equation
2
LAT1-MIRROR_NODE_6, 6, 1.
LAT1-PBC_NODE_6, 6, -1.
*Equation
3
LAT1-MIRROR_NODE_6, 1, 1.
LAT1-PBC_NODE_6, 1, -1.
INST1-REF1, 1, 0.9999999999999999
*Equation
3
LAT1-MIRROR_NODE_6, 2, 1.
LAT1-PBC_NODE_6, 2, -1.
INST1-REF2, 1, 0.9999999999999999
*Equation
3
LAT1-MIRROR_NODE_6, 3, 1.
LAT1-PBC_NODE_6, 3, -1.
INST1-REF2, 2, 0.9999999999999999
** INST1: Constraint 7, nodes {48,32}
*Nset, nset=LAT1-PBC_NODE_7, instance=INST1-LAT
  48,
*Nset, nset=LAT1-MIRROR_NODE_7, instance=INST1-LAT
  32,
*Equation
2
LAT1-MIRROR_NODE_7, 4, 1.
LAT1-PBC_NODE_7, 4, -1.
*Equation
2
LAT1-MIRROR_NODE_7, 5, 1.
LAT1-PBC_NODE_7, 5, -1.
*Equation
2
LAT1-MIRROR_NODE_7, 6, 1.
LAT1-PBC_NODE_7, 6, -1.
*Equation
3
LAT1-MIRROR_NODE_7, 1, 1.
LAT1-PBC_NODE_7, 1, -1.
INST1-REF1, 1, 0.9999999999999999
*Equation
3
LAT1-MIRROR_NODE_7, 2, 1.
LAT1-PBC_NODE_7, 2, -1.
INST1-REF2, 1, 0.9999999999999999
*Equation
3
LAT1-MIRROR_NODE_7, 3, 1.
LAT1-PBC_NODE_7, 3, -1.
INST1-REF2, 2, 0.9999999999999999
** INST1: Constraint 8, nodes {33,39}
*Nset, nset=LAT1-PBC_NODE_8, instance=INST1-LAT
  33,
*Nset, nset=LAT1-MIRROR_NODE_8, instance=INST1-LAT
  39,
*Equation
2
LAT1-MIRROR_NODE_8, 4, 1.
LAT1-PBC_NODE_8, 4, -1.
*Equation
2
LAT1-MIRROR_NODE_8, 5, 1.
LAT1-PBC_NODE_8, 5, -1.
*Equation
2
LAT1-MIRROR_NODE_8, 6, 1.
LAT1-PBC_NODE_8, 6, -1.
*Equation
3
LAT1-MIRROR_NODE_8, 1, 1.
LAT1-PBC_NODE_8, 1, -1.
INST1-REF2, 1, -1.0
*Equation
3
LAT1-MIRROR_NODE_8, 2, 1.
LAT1-PBC_NODE_8, 2, -1.
INST1-REF1, 2, -1.0
*Equation
3
LAT1-MIRROR_NODE_8, 3, 1.
LAT1-PBC_NODE_8, 3, -1.
INST1-REF2, 3, -1.0
** INST1: Constraint 9, nodes {34,40}
*Nset, nset=LAT1-PBC_NODE_9, instance=INST1-LAT
  34,
*Nset, nset=LAT1-MIRROR_NODE_9, instance=INST1-LAT
  40,
*Equation
2
LAT1-MIRROR_NODE_9, 4, 1.
LAT1-PBC_NODE_9, 4, -1.
*Equation
2
LAT1-MIRROR_NODE_9, 5, 1.
LAT1-PBC_NODE_9, 5, -1.
*Equation
2
LAT1-MIRROR_NODE_9, 6, 1.
LAT1-PBC_NODE_9, 6, -1.
*Equation
3
LAT1-MIRROR_NODE_9, 1, 1.
LAT1-PBC_NODE_9, 1, -1.
INST1-REF2, 1, -1.0
*Equation
3
LAT1-MIRROR_NODE_9, 2, 1.
LAT1-PBC_NODE_9, 2, -1.
INST1-REF1, 2, -1.0
*Equation
3
LAT1-MIRROR_NODE_9, 3, 1.
LAT1-PBC_NODE_9, 3, -1.
INST1-REF2, 3, -1.0
** INST1: Constraint 10, nodes {35,45}
*Nset, nset=LAT1-PBC_NODE_10, instance=INST1-LAT
  35,
*Nset, nset=LAT1-MIRROR_NODE_10, instance=INST1-LAT
  45,
*Equation
2
LAT1-MIRROR_NODE_10, 4, 1.
LAT1-PBC_NODE_10, 4, -1.
*Equation
2
LAT1-MIRROR_NODE_10, 5, 1.
LAT1-PBC_NODE_10, 5, -1.
*Equation
2
LAT1-MIRROR_NODE_10, 6, 1.
LAT1-PBC_NODE_10, 6, -1.
*Equation
3
LAT1-MIRROR_NODE_10, 1, 1.
LAT1-PBC_NODE_10, 1, -1.
INST1-REF2, 1, -1.0
*Equation
3
LAT1-MIRROR_NODE_10, 2, 1.
LAT1-PBC_NODE_10, 2, -1.
INST1-REF1, 2, -1.0
*Equation
3
LAT1-MIRROR_NODE_10, 3, 1.
LAT1-PBC_NODE_10, 3, -1.
INST1-REF2, 3, -1.0
** INST1: Constraint 11, nodes {36,46}
*Nset, nset=LAT1-PBC_NODE_11, instance=INST1-LAT
  36,
*Nset, nset=LAT1-MIRROR_NODE_11, instance=INST1-LAT
  46,
*Equation
2
LAT1-MIRROR_NODE_11, 4, 1.
LAT1-PBC_NODE_11, 4, -1.
*Equation
2
LAT1-MIRROR_NODE_11, 5, 1.
LAT1-PBC_NODE_11, 5, -1.
*Equation
2
LAT1-MIRROR_NODE_11, 6, 1.
LAT1-PBC_NODE_11, 6, -1.
*Equation
3
LAT1-MIRROR_NODE_11, 1, 1.
LAT1-PBC_NODE_11, 1, -1.
INST1-REF2, 1, -1.0
*Equation
3
LAT1-MIRROR_NODE_11, 2, 1.
LAT1-PBC_NODE_11, 2, -1.
INST1-REF1, 2, -1.0
*Equation
3
LAT1-MIRROR_NODE_11, 3, 1.
LAT1-PBC_NODE_11, 3, -1.
INST1-REF2, 3, -1.0
**
*End Assembly
**
** STEPS
*Step, name=Load-REF1-dof1, nlgeom=NO
*Static
1., 1., 1e-5, 1
*Boundary, OP=NEW
INST0-REF1, 1, 1, 1.0
*Boundary, OP=NEW
INST1-REF1, 1, 1, 1.0
*Restart, write, frequency=0
*Output, field, variable=PRESELECT
*Output, history, variable=PRESELECT
*End Step
**
*Step, name=Load-REF1-dof2, nlgeom=NO
*Static
1., 1., 1e-5, 1
*Boundary, OP=NEW
INST0-REF1, 2, 2, 1.0
*Boundary, OP=NEW
INST1-REF1, 2, 2, 1.0
*Restart, write, frequency=0
*Output, field, variable=PRESELECT
*Output, history, variable=PRESELECT
*End Step
**
*Step, name=Load-REF1-dof3, nlgeom=NO
*Static
1., 1., 1e-5, 1
*Boundary, OP=NEW
INST0-REF1, 3, 3, 1.0
*Boundary, OP=NEW
INST1-REF1, 3, 3, 1.0
*Restart, write, frequency=0
*Output, field, variable=PRESELECT
*Output, history, variable=PRESELECT
*End Step
**
*Step, name=Load-REF2-dof1, nlgeom=NO
*Static
1., 1., 1e-5, 1
*Boundary, OP=NEW
INST0-REF2, 1, 1, 0.5
*Boundary, OP=NEW
INST1-REF2, 1, 1, 0.5
*Restart, write, frequency=0
*Output, field, variable=PRESELECT
*Output, history, variable=PRESELECT
*End Step
**
*Step, name=Load-REF2-dof2, nlgeom=NO
*Static
1., 1., 1e-5, 1
*Boundary, OP=NEW
INST0-REF2, 2, 2, 0.5
*Boundary, OP=NEW
INST1-REF2, 2, 2, 0.5
*Restart, write, frequency=0
*Output, field, variable=PRESELECT
*Output, history, variable=PRESELECT
*End Step
**
*Step, name=Load-REF2-dof3, nlgeom=NO
*Static
1., 1., 1e-5, 1
*Boundary, OP=NEW
INST0-REF2, 3, 3, 0.5
*Boundary, OP=NEW
INST1-REF2, 3, 3, 0.5
*Restart, write, frequency=0
*Output, field, variable=PRESELECT
*Output, history, variable=PRESELECT
*End Step
**
